<routes>
    <vType id="car"
            vClass="passengar" length="5" accel="3.5" decel="2.2"
            sigma="1.0" maxSpeed="10"/>

    <vType id="ev"
            vClass="emergency" length="7" accel="5.5" decel="2.2" sigma="1.0"
            maxSpeed="20" guiShape="emergency" speedFactor="2.0"
            minGapLat="0.2"/>

    <route id="route_0" edges=" e1 E1 E2 E3 E4 E5 E6 E7" /> 
    <flow id="carflow" type="car" beg="0" end="0" number="5" from="e1" to="E7"/>
    <flow id="evflow" type="ev" beg="0" end="0" number="1" from="e1" to="E7"/>
    <!--<vehicle id="0" type="car" route="route_0" depart="0"/> --> 

</routes>